************************************************************************
* auCdl Netlist:
* 
* Library Name:  lab1
* Top Cell Name: nmos
* View Name:     schematic
* Netlisted on:  Oct 14 00:01:09 2025
************************************************************************

.INCLUDE  /CMC/kits/cmosp18.6.13a_ic6/tsmc18/../Calibre/lvs/source.added
*.EQUATION
*.LDD
*.SCALE METER
*.MEGA
.PARAM



************************************************************************
* Library Name: lab1
* Cell Name:    nmos
* View Name:    schematic
************************************************************************

.SUBCKT nmos B D G S
*.PININFO B:B D:B G:B S:B
MM1 D G S B N l=180.0n w=1u m=1
.ENDS

